TXA
  -OEChem-02162113503D

 26 26  0     0  0  0  0  0  0999 V2000
   18.1280   -0.5020   42.1640 N   0  0  0  0  0  0  0  0  0  0  0  0
   21.9090   -3.5670   40.8230 C   0  0  0  0  0  0  0  0  0  0  0  0
   24.2000   -4.4640   40.9570 O   0  0  0  0  0  0  0  0  0  0  0  0
   22.0520   -2.2980   40.0920 C   0  0  0  0  0  0  0  0  0  0  0  0
   22.5780   -5.7630   40.3660 O   0  0  0  0  0  0  0  0  0  0  0  0
   20.7430   -1.6000   39.9020 C   0  0  0  0  0  0  0  0  0  0  0  0
   19.8410   -1.6570   41.0620 C   0  0  0  0  0  0  0  0  0  0  0  0
   19.7300   -2.9920   41.7890 C   0  0  0  0  0  0  0  0  0  0  0  0
   21.0410   -3.6860   42.0220 C   0  0  0  0  0  0  0  0  0  0  0  0
   18.3710   -1.0160   40.8590 C   0  0  0  0  0  0  0  0  0  0  0  0
   23.0010   -4.6150   40.7470 C   0  0  0  0  0  0  0  0  0  0  0  0
   20.9140   -0.5637   39.6058 H   0  0  0  0  0  0  0  0  0  0  0  0
   20.2294   -2.0622   39.0574 H   0  0  0  0  0  0  0  0  0  0  0  0
   22.7117   -1.6501   40.6708 H   0  0  0  0  0  0  0  0  0  0  0  0
   22.5480   -2.4469   39.1309 H   0  0  0  0  0  0  0  0  0  0  0  0
   20.8731   -4.7259   42.3097 H   0  0  0  0  0  0  0  0  0  0  0  0
   21.5487   -3.2134   42.8639 H   0  0  0  0  0  0  0  0  0  0  0  0
   19.2179   -2.8795   42.7451 H   0  0  0  0  0  0  0  0  0  0  0  0
   19.0949   -3.6504   41.1940 H   0  0  0  0  0  0  0  0  0  0  0  0
   20.3807   -1.0150   41.7647 H   0  0  0  0  0  0  0  0  0  0  0  0
   17.6268   -1.7539   40.5533 H   0  0  0  0  0  0  0  0  0  0  0  0
   18.3803   -0.2022   40.1316 H   0  0  0  0  0  0  0  0  0  0  0  0
   17.1915   -0.1069   42.1948 H   0  0  0  0  0  0  0  0  0  0  0  0
   18.0915   -1.2757   42.8202 H   0  0  0  0  0  0  0  0  0  0  0  0
   21.2331   -4.0296   40.0978 H   0  0  0  0  0  0  0  0  0  0  0  0
   24.6546   -5.3007   40.8351 H   0  0  0  0  0  0  0  0  0  0  0  0
  1 10  1  0  0  0  0
  1 23  1  0  0  0  0
  1 24  1  0  0  0  0
  2  4  1  0  0  0  0
  2  9  1  0  0  0  0
  2 11  1  0  0  0  0
  2 25  1  0  0  0  0
  3 11  1  0  0  0  0
  3 26  1  0  0  0  0
  4  6  1  0  0  0  0
  4 14  1  0  0  0  0
  4 15  1  0  0  0  0
  5 11  2  0  0  0  0
  6  7  1  0  0  0  0
  6 12  1  0  0  0  0
  6 13  1  0  0  0  0
  7  8  1  0  0  0  0
  7 10  1  0  0  0  0
  7 20  1  0  0  0  0
  8  9  1  0  0  0  0
  8 18  1  0  0  0  0
  8 19  1  0  0  0  0
  9 16  1  0  0  0  0
  9 17  1  0  0  0  0
 10 21  1  0  0  0  0
 10 22  1  0  0  0  0
M  END
